 xtb: 6.7.1 (edcfbbe)
          09302420143D

  3  2  0     0  0            999 V2000
    0.0000    0.0118   -0.0000 O   0  0  0  0  0  0  0  0  0  0  0  0
    0.7727    0.5801   -0.0000 H   0  0  0  0  0  0  0  0  0  0  0  0
   -0.7727    0.5801    0.0000 H   0  0  0  0  0  0  0  0  0  0  0  0
  1  2  1  0  0  0  0
  1  3  1  0  0  0  0
M  END
